power-flow-agent/results/ieee14/2026-09-18/gpt-5.4/react_nogate/traces/10_case14-ambiguous-039-s0.transcript.txt
==============================================================================
TRANSCRIPT  react_nogate  |  openrouter:openai/gpt-5.4  |  case14  |  case14-ambiguous-039-s0  run 0
==============================================================================
date: 2026-09-18   seed: 0   difficulty: ambiguous   tool variant: load_split

[system]   (hash 7da5e2a37ec4, from methods/react_nogate/method.json prompt_files)
You are a power system power-flow analysis assistant. You help the user complete power system analysis tasks from natural-language requests.

## What you can do
You complete tasks by calling tool functions:
1. Load an IEEE standard test system (14, 30, 57, 118, 300 buses)
2. Run AC power flow
3. Modify the load at a bus and re-solve
4. Disconnect or reconnect a line and re-solve
5. Query the network status
6. Run an N-1 contingency analysis (disconnect branches one at a time and rank the worst cases)
7. Generate remedial-action suggestions (what-if load shedding or voltage adjustment) to reduce violation risk

## Key rules
- Never fabricate any numerical result. Every voltage, power, loss, or loading value must come from a tool return value.
- If a tool reports an error or a non-converged power flow, say so explicitly and do not report numbers for that state.
- If the request is ambiguous, state the interpretation you are using.
- Bus and line identifiers in the request are MATPOWER 1-based ids; pass them to the tools as given, unless the request itself states a different indexing convention for that identifier (e.g. "(0-based)"), in which case convert it to the MATPOWER 1-based id before calling any tool.
- After a network modification, re-solve before reporting any value.
- Always reply in English.

## Reply format
After each analysis, reply in this structure:
1. One-sentence summary
2. Key numbers (total load, total generation, total losses, voltage range) taken from the tool outputs
3. Violations, if any
4. Suggested next step

[user]
Load the 14-bus test case (case14) and set the active load at bus 1 (0-based) to 11 MW.

--- round 1 ---
[assistant]   (941 in / 20 out tokens, 1.7 s)
(no text)
tool_call  load_case(case_name="case14")
[tool load_case]   (gate: not applied)
{"case_name": "case14", "n_buses": 14, "n_generators": 5, "n_lines": 20, "n_loads": 11, "total_load_mw": 252.83309137785733, "total_gen_capacity_mw": 772.4000000000001}

--- round 2 ---
[assistant]   (1042 in / 26 out tokens, 1.2 s)
(no text)
tool_call  set_active_load(bus_id=2, p_mw=11)
[tool set_active_load]   (gate: pass)
{"case_name": "case14", "converged": true, "bus_voltages": [{"bus_id": 1, "vm_pu": 1.06, "va_deg": 0.0, "is_violation": true, "violation_type": "overvoltage"}, {"bus_id": 2, "vm_pu": 1.045, "va_deg": -4.561679709717946, "is_violation": false, "violation_type": null}, {"bus_id": 3, "vm_pu": 1.0099999999999998, "va_deg": -11.807776342163947, "is_violation": false, "violation_type": null}, {"bus_id": 4, "vm_pu": 1.0170639699302375, "va_deg": -9.951679758894329, "is_violation": false, "violation_type": null}, {"bus_id": 5, "vm_pu": 1.0190161182737663, "va_deg": -8.475885846400617, "is_violation": false, "violation_type": null}, {"bus_id": 6, "vm_pu": 1.0699999999999998, "va_deg": -14.045822456296456, "is_violation": true, "violation_type": "overvoltage"}, {"bus_id": 7, "vm_pu": 1.0611404610518342, "va_deg": -13.063688074167949, "is_violation": true, "violation_type": "overvoltage"}, {"bus_id": 8, "vm_pu": 1.0900000000000003, "va_deg": -13.063688074167946, "is_violation": true, "violation_type": "overvoltage"}, {"bus_id": 9, "vm_pu": 1.0554929836660278, "va_deg": -14.67609693747043, "is_violation": true, "violation_type": "overvoltage"}, {"bus_id": 10, "vm_pu": 1.0501003215166458, "va_deg": -14.8717950836505, "is_violation": true, "violation_type": "overvoltage"}, {"bus_id": 11, "vm_pu": 1.0561646030334435, "va_deg": -14.602160382274262, "is_violation": true, "violation_type": "overvoltage"}, {"bus_id": 12, "vm_pu": 1.0543088785902974, "va_deg": -14.939169780043615, "is_violation": true, "violation_type": "overvoltage"}, {"bus_id": 13, "vm_pu": 1.049605606758121, "va_deg": -15.004460904303954, "is_violation": false, "violation_type": null}, {"bus_id": 14, "vm_pu": 1.0350502336672727, "va_deg": -15.81432088472783, "is_violation": false, "violation_type": null}], "line_flows": [{"line_id": 0, "from_bus": 1, "to_bus": 2, "p_from_mw": 144.16728739421103, "q_from_mvar": -17.383664343366632, "loading_percent": 1.3837580023054024, "is_violation": false}, {"line_id": 1, "from_bus": 1, "to_bus": 5, "p_from_mw": 73.09132369153987, "q_from_mvar": 4.297083190222219, "loading_percent": 0.6988995464677618, "is_violation": false}, {"line_id": 2, "from_bus": 2, "to_bus": 3, "p_from_mw": 68.76680612307158, "q_from_mvar": 4.018922315465683, "loading_percent": 0.667209540537823, "is_violation": false}, {"line_id": 3, "from_bus": 2, "to_bus": 4, "p_from_mw": 56.78921296482727, "q_from_mvar": -1.3503261640669804, "loading_percent": 0.5490818677881246, "is_violation": false}, {"line_id": 4, "from_bus": 2, "to_bus": 5, "p_from_mw": 42.79685219276342, "q_from_mvar": 1.138336416757041, "loading_percent": 0.41513303279035, "is_violation": false}, {"line_id": 5, "from_bus": 3, "to_bus": 4, "p_from_mw": -18.174564558510195, "q_from_mvar": 2.6115500413393202, "loading_percent": 0.1857386316000351, "is_violation": false}, {"line_id": 6, "from_bus": 4, "to_bus": 5, "p_from_mw": -58.720978904029955, "q_from_mvar": 14.717576895855547, "loading_percent": 0.6012281838872434, "is_violation": false}, {"line_id": 7, "from_bus": 6, "to_bus": 11, "p_from_mw": 7.39703466597131, "q_from_mvar": 3.937378116664312, "loading_percent": 0.07910584227727904, "is_violation": false}, {"line_id": 8, "from_bus": 6, "to_bus": 12, "p_from_mw": 8.16902960876648, "q_from_mvar": 2.6918681722663136, "loading_percent": 0.08119622532649667, "is_violation": false}, {"line_id": 9, "from_bus": 6, "to_bus": 13, "p_from_mw": 18.27814047861036, "q_from_mvar": 7.590545949491341, "loading_percent": 0.18683644152807313, "is_violation": false}, {"line_id": 10, "from_bus": 9, "to_bus": 10, "p_from_mw": 6.147593011334641, "q_from_mvar": 4.429388110780435, "loading_percent": 0.07251239101961215, "is_violation": false}, {"line_id": 11, "from_bus": 9, "to_bus": 14, "p_from_mw": 9.676846556523003, "q_from_mvar": 3.5108021038220887, "loading_percent": 0.0985133210705855, "is_violation": false}, {"line_id": 12, "from_bus": 10, "to_bus": 11, "p_from_mw": -3.4934943931190383, "q_from_mvar": -1.816739055006995, "loading_percent": 0.03787655866595132, "is_violation": false}, {"line_id": 13, "from_bus": 12, "to_bus": 13, "p_from_mw": 1.518392531056373, "q_from_mvar": 0.8029752710828743, "loading_percent": 0.016456176596820457, "is_violation": false}, {"line_id": 14, "from_bus": 13, "to_bus": 14, "p_from_mw": 5.304083808231684, "q_from_mvar": 1.8158883231074323, "loading_percent": 0.05395305901559255, "is_violation": false}, {"line_id": 100000, "from_bus": 4, "to_bus": 7, "p_from_mw": 28.647800198402162, "q_from_mvar": -9.763338844587464, "loading_percent": 0.3005860588275176, "is_violation": false}, {"line_id": 100001, "from_bus": 4, "to_bus": 9, "p_from_mw": 16.40581599699332, "q_from_mvar": -0.4350279002474672, "loading_percent": 0.16299226780267045, "is_violation": false}, {"line_id": 100002, "from_bus": 5, "to_bus": 6, "p_from_mw": 45.05648058626372, "q_from_mvar": 12.328436257510667, "loading_percent": 0.46304027373228335, "is_violation": false}, {"line_id": 100003, "from_bus": 7, "to_bus": 8, "p_from_mw": -3.3316431175557425e-14, "q_from_mvar": -17.385196971445012, "loading_percent": 0.16548992019637848, "is_violation": false}, {"line_id": 100004, "from_bus": 7, "to_bus": 9, "p_from_mw": 28.647800198013822, "q_from_mvar": 5.850602115283679, "loading_percent": 0.27832754816860683, "is_violation": false}], "total_generation_mw": 256.06493419571984, "total_load_mw": 243.8581184400785, "total_loss_mw": 12.206815761789905, "voltage_violations": [{"bus_id": 1, "vm_pu": 1.06, "va_deg": 0.0, "is_violation": true, "violation_type": "overvoltage"}, {"bus_id": 6, "vm_pu": 1.0699999999999998, "va_deg": -14.045822456296456, "is_violation": true, "violation_type": "overvoltage"}, {"bus_id": 7, "vm_pu": 1.0611404610518342, "va_deg": -13.063688074167949, "is_violation": true, "violation_type": "overvoltage"}, {"bus_id": 8, "vm_pu": 1.0900000000000003, "va_deg": -13.063688074167946, "is_violation": true, "violation_type": "overvoltage"}, {"bus_id": 9, "vm_pu": 1.0554929836660278, "va_deg": -14.67609693747043, "is_violation": true, "violation_type": "overvoltage"}, {"bus_id": 10, "vm_pu": 1.0501003215166458, "va_deg": -14.8717950836505, "is_violation": true, "violation_type": "overvoltage"}, {"bus_id": 11, "vm_pu": 1.0561646030334435, "va_deg": -14.602160382274262, "is_violation": true, "violation_type": "overvoltage"}, {"bus_id": 12, "vm_pu": 1.0543088785902974, "va_deg": -14.939169780043615, "is_violation": true, "violation_type": "overvoltage"}], "thermal_violations": [], "summary_text": "", "solver_backend": "pandapower", "llm_prompt": null, "llm_response": null, "resolved_bus_id": 2, "assumption": "reactive load at this bus is unchanged from its present value"}

--- round 3 ---
[assistant]   (3777 in / 184 out tokens, 2.6 s)
1. Loaded IEEE case14 and, interpreting “bus 1 (0-based)” as MATPOWER bus 2, set its active load to 11 MW; the power flow converged.

2. Key numbers:
- Total load: 243.858 MW
- Total generation: 256.065 MW
- Total losses: 12.207 MW
- Voltage range: 1.010 p.u. to 1.090 p.u.

3. Violations, if any:
- Voltage violations: overvoltage at buses 1, 6, 7, 8, 9, 10, 11, and 12
- Thermal violations: none

4. Suggested next step:
- If you want, I can check the current status in more detail, find the most loaded branch, or suggest remedial actions for the overvoltage violations.

[final answer]
1. Loaded IEEE case14 and, interpreting “bus 1 (0-based)” as MATPOWER bus 2, set its active load to 11 MW; the power flow converged.

2. Key numbers:
- Total load: 243.858 MW
- Total generation: 256.065 MW
- Total losses: 12.207 MW
- Voltage range: 1.010 p.u. to 1.090 p.u.

3. Violations, if any:
- Voltage violations: overvoltage at buses 1, 6, 7, 8, 9, 10, 11, and 12
- Thermal violations: none

4. Suggested next step:
- If you want, I can check the current status in more detail, find the most loaded branch, or suggest remedial actions for the overvoltage violations.
